#RADIOSS STARTER
##========================================================================================
##
## Radioss Input Deck Generated by HyperMesh Version  : 2022.0.0.33
## Generated using HyperMesh-Radioss Template Version : 2022.0.0.33
## Date: 10-26-2023   Time: 22:58:11
##
##========================================================================================
##
##--------------------------------------------------------------------------------------------------
# Created by Gmsh, Radioss Mesh Interface by PaulAltair sharp@altair.com
#---1----|----2----|----3----|----4----|----5----|----6----|----7----|----8----|----9----|---10----|
##
/BEGIN
#Runname                                                                        
001thermal                                                                      
#   Invers      Irun
      2022         0
#    Input_mass_unit   Input_length_unit     Input_time_unit
                   g                  mm                  ms
#     Work_mass_unit    Work_length_unit      Work_time_unit
                   g                  mm                  ms
##
#---1----|----2----|----3----|----4----|----5----|----6----|----7----|----8----|----9----|---10----|
/NODE
#  node_ID                  Xc                  Yc                  Zc
         1               -50.0                50.0                 0.0
         2               -50.0               -50.0                 0.0
         3                50.0                50.0                 0.0
         4                50.0               -50.0                 0.0
         5               -50.0             45.4545                 0.0
         6               -50.0            -45.4545                 0.0
         7               -50.0            -36.3636                 0.0
         8               -50.0            -27.2727                 0.0
         9               -50.0            -18.1818                 0.0
        10               -50.0            -9.09091                 0.0
        11               -50.0                 0.0                 0.0
        12               -50.0             9.09091                 0.0
        13               -50.0             18.1818                 0.0
        14               -50.0             27.2727                 0.0
        15               -50.0             36.3636                 0.0
        16               -50.0             40.9091                 0.0
        17               -50.0             31.8182                 0.0
        18               -50.0             22.7273                 0.0
        19               -50.0             13.6364                 0.0
        20               -50.0             4.54545                 0.0
# ... 558 like lines cut
#---1----|----2----|----3----|----4----|----5----|----6----|----7----|----8----|----9----|---10----|
/SHELL/1
# shell_ID  node_ID1  node_ID2  node_ID3  node_ID4                         phi_s               Thick
         1         1        26        89         5                                                  
         2        26        37        90        89                                                  
         3        37        36        91        90                                                  
         4        36        38        92        91                                                  
         5        38        35        93        92                                                  
         6        35        39        94        93                                                  
         7        39        34        95        94                                                  
         8        34        40        96        95                                                  
         9        40        33        97        96                                                  
        10        33        41        98        97                                                  
        11        41        32        99        98                                                  
        12        32        42       100        99                                                  
        13        42        31       101       100                                                  
        14        31        43       102       101                                                  
        15        43        30       103       102                                                  
        16        30        44       104       103                                                  
        17        44        29       105       104                                                  
        18        29        45       106       105                                                  
        19        45        28       107       106                                                  
        20        28        46       108       107                                                  
# ... 464 like lines cut
/SHELL/2
# shell_ID  node_ID1  node_ID2  node_ID3  node_ID4                         phi_s               Thick
       605       530       539       554       534                                                  
       606       539       542       555       554                                                  
       607       542       540       556       555                                                  
       608       540       543       557       556                                                  
       609       543       541       558       557                                                  
       610       541       532       544       558                                                  
       611       534       554       559       537                                                  
       612       554       555       560       559                                                  
       613       555       556       561       560                                                  
       614       556       557       562       561                                                  
       615       557       558       563       562                                                  
       616       558       544       547       563                                                  
       617       537       559       564       535                                                  
       618       559       560       565       564                                                  
       619       560       561       566       565                                                  
       620       561       562       567       566                                                  
       621       562       563       568       567                                                  
       622       563       547       545       568                                                  
       623       535       564       569       538                                                  
       624       564       565       570       569                                                  
# ... 16 like lines cut
#---1----|----2----|----3----|----4----|----5----|----6----|----7----|----8----|----9----|---10----|
/GRNOD/NODE/1
#title                                                                                              
under_plate                                                                                       
# item_ID1  item_ID2  item_ID3  item_ID4  item_ID5  item_ID6  item_ID7  item_ID8  item_ID9 item_ID10
         2         1         3         4         9         8        15        10
         5        47        48        49        50        51         6        53
        54        55        12        56         7        52        11        13
        14        74        29        78        33        28        26        36
        57        73        77        30        31        32        71        72
        34        35        69        68        27        76        70        75
        94        97        96       106        98        95        99       112
       104       102        92       107       113        90       116        89
       120       122       101       119       123       124       125       103
       105       118       126       127       128       114        91       129
       110       111       117       115       121        93       100       108
       109       186       155       182       157       146       169       177
       164       133       150       147       171       173       184       130
       185       187       140       159       153       180       188       145
       148       176       174       152       172       189       136       151
       143       154       167       131       141       142       162       163
       135       144       156       168       160       165       139       175
       134       132       158       178       191       192       179       193
       161       138       137       170       149       166       181       190
       183       222       223       216       211       204       227       228
# ... 47 like lines cut
/GRNOD/NODE/2
#title                                                                                              
thermal_plate                                                                                       
# item_ID1  item_ID2  item_ID3  item_ID4  item_ID5  item_ID6  item_ID7  item_ID8  item_ID9 item_ID10
       531       530       533       532       540       541       536       535
       534       539       544       545       546       549       550       551
       554       555       557       574       577       566       556       559
       576       561       565       563       569       570       575       571
       573       560       564       567       562       558       578       572
       568       538       543       547       552       537       542       548
       553
#---1----|----2----|----3----|----4----|----5----|----6----|----7----|----8----|----9----|---10----|
/PART/1
#part_title                                                                                         
Plate                                                                                     
#  prop_ID    mat_ID                         Thick
         1         1
#---1----|----2----|----3----|----4----|----5----|----6----|----7----|----8----|----9----|---10----|
/PART/2
#part_title                                                                                         
Source                                                                                   
#  prop_ID    mat_ID                         Thick
         2         2 
##HWCOLOR materials 1 5
/MAT/PLAS_JOHNS/1
PLATE -Alumaterial1                                                                                 
#              RHO_I
              0.0028
#                  E                  Nu     Iflag
              7000.0                0.33         0
#                  a                   b                   n           EPS_p_max            SIG_max0
               260.0               450.0                 0.5                                        
#                  c           EPS_DOT_0       ICC   Fsmooth               F_cut               Chard
                                                                                                    
#                  m              T_melt              rhoC_p                 T_r
                                                        2.51               298.0
/HEAT/MAT/1
#                 T0             RHO0_CP                  AS                  BS     IfORM
               398.0                2.51                0.23                             1
#                 T1                  AL                  BL               EFRAC
                                                                                
#---1----|----2----|----3----|----4----|----5----|----6----|----7----|----8----|----9----|---10----|
##HWCOLOR materials 2 6
/MAT/PLAS_JOHNS/2
Source -Alumaterial1                                                                                
#              RHO_I
              0.0078
#                  E                  Nu     Iflag
            210000.0                0.33         0
#                  a                   b                   n           EPS_p_max            SIG_max0
               206.0               450.0                 0.5                                        
#                  c           EPS_DOT_0       ICC   Fsmooth               F_cut               Chard
                                                                                                    
#                  m              T_melt              rhoC_p                 T_r
                                                        2.51               298.0
/HEAT/MAT/2
#                 T0             RHO0_CP                  AS                  BS     IfORM
               800.0                2.51                0.23                             1
#                 T1                  AL                  BL               EFRAC
                                                                                
#---1----|----2----|----3----|----4----|----5----|----6----|----7----|----8----|----9----|---10----|
##HWCOLOR properties 1 7
/PROP/SHELL/1
PID 1                                                                                               
#   Ishell    Ismstr     Ish3n    Idrill                            P_Thick_Fail
         1         1                                                            
#                 Hm                  Hf                  Hr                  Dm                  Dn
                                                                                                    
#        N   Istrain               Thick              Ashear              Ithick     Iplas
         1                           1.0                                                  
#---1----|----2----|----3----|----4----|----5----|----6----|----7----|----8----|----9----|---10----|
##HWCOLOR properties 2 8
/PROP/SHELL/2
PID 2                                                                                               
#   Ishell    Ismstr     Ish3n    Idrill                            P_Thick_Fail
         1         0                                                            
#                 Hm                  Hf                  Hr                  Dm                  Dn
                                                                                                    
#        N   Istrain               Thick              Ashear              Ithick     Iplas
         1                           1.0                                                  
#---1----|----2----|----3----|----4----|----5----|----6----|----7----|----8----|----9----|---10----|
##HMGROUP  1 3 MSTENT
/INTER/TYPE7/2
New INTER 2
#  Slav_id   Mast_id      Istf      Ithe      Igap                Ibag      Idel     Icurv      Iadm
        21        12         0         1         0                   0         0         0         0
#          Fscalegap             GAP_MAX             Fpenmax
                   0                   0                   0
#              Stmin               Stmax          %mesh_size               dtmin  Irem_gap
                   0                   0                   0                   0         0
#              Stfac                Fric              Gapmin              Tstart               Tstop
                1E-7                 .15                1.01                   0                   0
#      IBC                        Inacti                VisS                VisF              Bumult
       000                             0                   0                   0                   0
#    Ifric    Ifiltr               Xfreq     Iform   sens_ID
         0         0                   0         1         0
#               Rthe                                    Tint Ithe_form
                .015                                     398         1
#               Frad                Drad              Fheats              Fheatm
                   0                   0                   0                   0
/GRNOD/PART/21
PID 1 NODE GROUP
# item_ID1  item_ID2  item_ID3  item_ID4  item_ID5  item_ID6  item_ID7  item_ID8  item_ID9 item_ID10
         1
/SURF/PART/12
PID 2 SURF GROUP
# item_ID1  item_ID2  item_ID3  item_ID4  item_ID5  item_ID6  item_ID7  item_ID8  item_ID9 item_ID10
         2
#---1----|----2----|----3----|----4----|----5----|----6----|----7----|----8----|----9----|---10----|
/BCS/1
PID 1 NODE GR                                                                                       
#  Tra rot   skew_ID  grnod_ID
   111 111         0         1
#---1----|----2----|----3----|----4----|----5----|----6----|----7----|----8----|----9----|---10----|
##HMNAME LOADCOLS          2Bcs.1                                                                   
##HWCOLOR loadcollectors 2 21
/BCS/2
PID 2 NODE GR                                                                                       
#  Tra rot   skew_ID  grnod_ID
   001 111         0         2
#---1----|----2----|----3----|----4----|----5----|----6----|----7----|----8----|----9----|---10----|
##HMNAME LOADCOLS          4Impvel                                                                  
##HWCOLOR loadcollectors 4 28
/IMPVEL/3
Vy                                                                                                  
#funct_IDT       Dir   skew_ID sensor_ID  grnod_ID  frame_ID     Icoor
         1         Y         0         0         2                   0
#            Scale_x             Scale_y              Tstart               Tstop
                 1.0                 0.5                 0.01.00000000000000E+31
#---1----|----2----|----3----|----4----|----5----|----6----|----7----|----8----|----9----|---10----|
##HWCOLOR curves 1 32
/FUNCT/1
#title                                                                                              
curve1                                                                                              
#                  X                   Y
                 0.0                 1.0
1.00000000000000E+30                 1.0
#---1----|----2----|----3----|----4----|----5----|----6----|----7----|----8----|----9----|---10----|
/CONVEC/1
CONVEC with water
#  SURF_ID  FUNCT_ID SENSOR_ID
        11         6         0
#             ASCALE              FSCALE              TSTART               TSTOP                   H
                   0                   0                   0                   0                0E-4
/SURF/PART/11
New SURF
# item_ID1  item_ID2  item_ID3  item_ID4  item_ID5  item_ID6  item_ID7  item_ID8  item_ID9 item_ID10
         1
/FUNCT/6
CONVEC, temp vs time
#                  X                   Y
                   0                 298                                                            
                  60                 298                                                            
#---1----|----2----|----3----|----4----|----5----|----6----|----7----|----8----|----9----|---10----|
##--------------------------------------------------------------------------------------------------
## End Of Radioss Block Deck
##--------------------------------------------------------------------------------------------------
/END
